Version 4
SHEET 1 1268 680
WIRE 192 80 160 80
WIRE -96 96 -112 96
WIRE 32 96 -96 96
WIRE 208 112 160 112
WIRE 528 112 496 112
WIRE 32 128 -32 128
WIRE 624 128 624 0
WIRE 624 128 592 128
WIRE 352 144 160 144
WIRE 384 144 352 144
WIRE 528 144 464 144
WIRE 352 160 352 144
WIRE 496 208 496 112
WIRE 576 208 496 208
WIRE -32 224 -32 128
WIRE 352 224 -32 224
WIRE -32 288 -32 224
WIRE 208 288 -32 288
WIRE 256 288 208 288
WIRE 576 288 576 208
WIRE 576 288 336 288
WIRE 688 288 576 288
WIRE 816 288 768 288
WIRE 880 288 816 288
WIRE 1040 288 960 288
WIRE 816 304 816 288
WIRE 1040 320 1040 288
WIRE 208 336 208 288
WIRE 208 464 208 416
FLAG -592 -16 V
FLAG -592 64 0
FLAG -592 288 0
FLAG 208 464 0
FLAG 624 0 V
FLAG 208 112 0
FLAG 192 80 V
FLAG -592 208 InputTr
FLAG -752 272 InputPWM
FLAG -752 352 0
FLAG -96 160 0
FLAG 816 368 0
FLAG 1040 320 0
FLAG -112 96 InputPWM
SYMBOL voltage -592 -32 R0
WINDOW 123 0 0 Left 0
WINDOW 39 0 0 Left 0
SYMATTR InstName V1
SYMATTR Value 12V
SYMBOL voltage -592 192 R0
WINDOW 123 0 0 Left 0
WINDOW 39 0 0 Left 0
SYMATTR InstName V2
SYMATTR Value PULSE(0 3.0 0 0.9 0.1 0.01 1 10)
SYMBOL res 352 272 R90
WINDOW 0 0 56 VBottom 2
WINDOW 3 32 56 VTop 2
SYMATTR InstName R2
SYMATTR Value 2.7kR
SYMBOL res 192 320 R0
SYMATTR InstName R3
SYMATTR Value 1kR
SYMBOL voltage -752 256 R0
WINDOW 123 24 124 Left 2
WINDOW 39 0 0 Left 0
SYMATTR InstName V3
SYMATTR Value PULSE(0 3.0 0 0.0000001 0.0000001 0.000002 0.000005 10000)
SYMATTR Value2 AC 2
SYMBOL cap 336 160 R0
SYMATTR InstName C1
SYMATTR Value 10pC
SYMBOL cap -112 96 R0
WINDOW 3 -55 39 Left 2
SYMATTR InstName C2
SYMATTR Value 0.1µC
SYMBOL AutoGenerated\\Si2302CDS 560 128 R180
WINDOW 3 -103 -61 Top 2
SYMATTR InstName U2
SYMBOL res 480 128 R90
WINDOW 0 0 56 VBottom 2
WINDOW 3 32 56 VTop 2
SYMATTR InstName R1
SYMATTR Value 100R
SYMBOL zener 832 368 R180
WINDOW 0 24 64 Left 2
WINDOW 3 -173 8 Left 2
SYMATTR InstName D1
SYMATTR Value BZX84C10VLY
SYMBOL res 672 304 R270
WINDOW 0 32 56 VTop 2
WINDOW 3 0 56 VBottom 2
SYMATTR InstName R5
SYMATTR Value 100R
SYMBOL current 880 288 R270
WINDOW 0 32 40 VTop 2
WINDOW 3 -32 40 VBottom 2
WINDOW 123 0 0 Left 0
WINDOW 39 0 0 Left 0
SYMATTR InstName I1
SYMATTR Value 0.0002
SYMBOL AutoGenerated\\TLV9352 96 112 R0
SYMATTR InstName U1
TEXT -626 488 Left 2 !.tran 0.001
