Version 4
SHEET 1 1220 680
WIRE 1024 -96 640 -96
WIRE 1024 -48 1024 -96
WIRE 464 64 464 -96
WIRE 160 128 96 128
WIRE 272 144 224 144
WIRE 320 144 272 144
WIRE 416 144 400 144
WIRE 624 160 464 160
WIRE 96 208 96 128
WIRE 192 208 96 208
WIRE 272 208 192 208
WIRE 288 208 272 208
WIRE 464 208 464 160
WIRE 464 208 368 208
FLAG 192 176 0
FLAG -64 64 V
FLAG -64 144 0
FLAG -64 240 Input
FLAG -64 320 0
FLAG 160 160 Input
FLAG 192 112 V
FLAG 1024 32 0
FLAG 192 288 0
FLAG 464 -96 V
FLAG 624 160 DimO
FLAG 640 -96 DimO
SYMBOL voltage -64 48 R0
WINDOW 123 0 0 Left 0
WINDOW 39 0 0 Left 0
SYMATTR InstName V2
SYMATTR Value 12V
SYMBOL voltage -64 224 R0
WINDOW 123 0 0 Left 0
WINDOW 39 0 0 Left 0
SYMATTR InstName V3
SYMATTR Value PULSE(0 2.5 0 0.9 0.1 0.01 1 10)
SYMBOL nmos 416 64 R0
SYMATTR InstName M1
SYMATTR Value FDS9934_N
SYMBOL OpAmps\\AD8031 192 80 R0
SYMATTR InstName U2
SYMBOL res 416 128 R90
WINDOW 0 0 56 VBottom 2
WINDOW 3 32 56 VTop 2
SYMATTR InstName R1
SYMATTR Value 75R
SYMBOL current 1024 32 R180
WINDOW 0 24 80 Left 2
WINDOW 3 24 0 Left 2
WINDOW 123 0 0 Left 0
WINDOW 39 0 0 Left 0
SYMATTR InstName I1
SYMATTR Value 0.0002
SYMBOL res 384 192 R90
WINDOW 0 0 56 VBottom 2
WINDOW 3 32 56 VTop 2
SYMATTR InstName R3
SYMATTR Value 3kR
SYMBOL res 176 192 R0
SYMATTR InstName R4
SYMATTR Value 1kR
SYMBOL cap 256 144 R0
SYMATTR InstName C1
SYMATTR Value 100nC
TEXT -98 360 Left 2 !.tran 10
