Version 4
SHEET 1 880 680
WIRE -352 -128 -464 -128
WIRE 32 -128 32 -144
WIRE 32 -128 -272 -128
WIRE -464 -80 -464 -128
WIRE -160 -80 -192 -80
WIRE -272 -16 -272 -80
WIRE -464 16 -464 0
WIRE 384 32 384 0
WIRE -272 64 -272 48
WIRE -400 80 -464 80
WIRE -272 80 -272 64
WIRE -464 96 -464 80
WIRE -80 112 -80 64
WIRE -80 112 -240 112
WIRE 48 112 -80 112
WIRE 144 112 48 112
WIRE 384 112 336 112
WIRE 384 128 384 112
WIRE -464 192 -464 176
WIRE 144 208 96 208
WIRE 384 208 336 208
WIRE 400 208 384 208
WIRE -64 224 -96 224
WIRE 48 224 48 192
WIRE 48 224 16 224
WIRE 400 224 400 208
WIRE 48 288 48 224
WIRE 96 288 48 288
WIRE -240 320 -240 192
WIRE -192 320 -240 320
WIRE -96 320 -96 224
WIRE -96 320 -128 320
WIRE -80 320 -96 320
WIRE 48 320 48 288
WIRE 48 320 -16 320
WIRE 48 336 48 320
WIRE -240 368 -240 320
WIRE 16 368 -240 368
WIRE -240 400 -240 368
WIRE 48 480 48 400
FLAG 400 224 0
FLAG 48 480 0
FLAG -240 480 0
FLAG -464 16 0
FLAG -464 192 0
FLAG -400 80 3.3V
FLAG -80 64 12V
FLAG 384 0 3.3V
FLAG 32 -144 12V
FLAG -272 80 0
SYMBOL ZZZ\\OPTO\\pc357nt 240 160 R0
SYMATTR InstName U1
SYMBOL res 368 16 R0
SYMATTR InstName R1
SYMATTR Value 15kR
SYMBOL ZZZ\\REF\\TL431 32 336 R0
SYMATTR InstName U2
SYMBOL res 80 192 R0
SYMATTR InstName R2
SYMATTR Value 470
SYMBOL res -256 384 R0
SYMATTR InstName R3
SYMATTR Value 2490R
SYMBOL res -256 96 R0
SYMATTR InstName R4
SYMATTR Value 9530R
SYMBOL res 32 96 R0
SYMATTR InstName R5
SYMATTR Value 1870
SYMBOL cap -128 304 R90
WINDOW 0 0 32 VBottom 2
WINDOW 3 32 32 VTop 2
SYMATTR InstName C1
SYMATTR Value 3.3µC
SYMBOL cap -16 304 R90
WINDOW 0 0 32 VBottom 2
WINDOW 3 32 32 VTop 2
SYMATTR InstName C2
SYMATTR Value 22nC
SYMBOL res 32 208 R90
WINDOW 0 0 56 VBottom 2
WINDOW 3 32 56 VTop 2
SYMATTR InstName R6
SYMATTR Value 2320R
SYMBOL res 368 112 R0
SYMATTR InstName R7
SYMATTR Value 750kR
SYMBOL voltage -464 -96 R0
WINDOW 123 0 0 Left 0
WINDOW 39 0 0 Left 0
SYMATTR InstName V1
SYMATTR Value 8
SYMBOL voltage -464 80 R0
WINDOW 123 0 0 Left 0
WINDOW 39 0 0 Left 0
SYMATTR InstName V2
SYMATTR Value 3.3V
SYMBOL voltage -272 80 R180
WINDOW 3 -278 80 Left 2
WINDOW 123 0 0 Left 0
WINDOW 39 0 0 Left 0
SYMATTR Value SINE(0 1.5 10000)
SYMATTR InstName V3
SYMBOL res -176 -96 R90
WINDOW 0 0 56 VBottom 2
WINDOW 3 32 56 VTop 2
SYMATTR InstName R8
SYMATTR Value 0.001R
SYMBOL cap -96 -96 R90
WINDOW 0 0 32 VBottom 2
WINDOW 3 32 32 VTop 2
SYMATTR InstName C3
SYMATTR Value 0.1C
SYMBOL voltage -368 -128 R270
WINDOW 3 -278 80 Left 2
WINDOW 123 0 0 Left 0
WINDOW 39 0 0 Left 0
SYMATTR Value PULSE(0 0.00 0 0.001 0.001 0.005 0.01 20)
SYMATTR InstName V4
TEXT -496 504 Left 2 !.tran 0.1
