*----------------------------------------------------------------------
* SPICE Model generated by Murata Manufacturing Co., Ltd.
* Copyright(C) Murata Manufacturing Co., Ltd.
* Description :1005M(0402)/C0G/12pF/50V
* Murata P/N :GRM1555C1H120JA01
* Property : C = 12[pF]
* Data Generated on Jan 10, 2017
*----------------------------------------------------------------------
* Applicable Conditions:
*   Frequency Range = 100MHz-8.5GHz
*   Temperature = 25 degC
*   DC Bias Voltage = 0V
*   Small Signal Operation
*----------------------------------------------------------------------
.SUBCKT GRM1555C1H120JA01 port1 port2
C1 port1 11 1.20e-11
L2 11 12 9.00e-11
R3 12 13 1.20e-1
L4 13 14 2.40e-11
R4 13 14 2.47e-1
C5 14 15 8.69e-11
L5 14 15 1.21e-11
R5 14 15 2.88
C6 15 16 1.16e-11
L6 15 16 2.91e-11
R6 15 16 5.24
C7 16 port2 1.10e-12
L7 16 port2 1.75e-10
R7 16 port2 1.00e+5
R100 port1 11 1.00e+10
.ENDS GRM1555C1H120JA01