*----------------------------------------------------------------------
* SPICE Model generated by Murata Manufacturing Co., Ltd.
* Copyright(C) Murata Manufacturing Co., Ltd.
* Description :1005M(0402)/C0G/1.8pF/50V
* Murata P/N :GRM1555C1H1R8CA01
* Property : C = 1.8[pF]
* Data Generated on Jan 10, 2017
*----------------------------------------------------------------------
* Applicable Conditions:
*   Frequency Range = 100MHz-8.5GHz
*   Temperature = 25 degC
*   DC Bias Voltage = 0V
*   Small Signal Operation
*----------------------------------------------------------------------
.SUBCKT GRM1555C1H1R8CA01 port1 port2
C1 port1 11 1.80e-12
L2 11 12 2.57e-10
R3 12 13 4.20e-1
C4 13 14 1.70e-11
L4 13 14 1.80e-11
R4 13 14 3.70
C5 14 port2 6.87e-12
L5 14 port2 4.01e-11
R5 14 port2 1.00e+5
R100 port1 11 1.00e+10
.ENDS GRM1555C1H1R8CA01