*----------------------------------------------------------------------
* SPICE Model generated by Murata Manufacturing Co., Ltd.
* Copyright(C) Murata Manufacturing Co., Ltd.
* MURATA P/N : LQG15HS2N4S02
* Property : L = 2.4[nH]
*----------------------------------------------------------------------
* Applicable Conditions:
*   Frequency Range = 50MHz - 20GHz
*   Temperature = 25 degC
*   DC Bias Current = 0 A
*   Small Signal Operation
*----------------------------------------------------------------------
.SUBCKT LQG15HS2N4S02 port1 port2
C1 port1 port2 3.64e-16
L2 port1 1 3.18e-9
R2 1 port2 6.83e-2
R3 port1 port2 6.08e+3
L4 port1 2 5.95e-8
R4 2 port2 186
L5 port1 3 2.77e-8
R5 3 port2 9.66
L6 port1 4 3.78e-8
R6 4 port2 3.63
L7 port1 5 4.53e-7
C7 5 6 2.87e-16
R7 6 port2 501
L8 port1 7 6.67e-10
C8 7 8 7.05e-14
R8 8 port2 4.16
.ENDS LQG15HS2N4S02
*----------------------------------------------------------------------
