*----------------------------------------------------------------------
* SPICE Model generated by Murata Manufacturing Co., Ltd.
* Copyright(C) Murata Manufacturing Co., Ltd.
* MURATA P/N : LQG15HS2N0S02
* Property : L = 2[nH]
*----------------------------------------------------------------------
* Applicable Conditions:
*   Frequency Range = 50MHz - 20GHz
*   Temperature = 25 degC
*   DC Bias Current = 0 A
*   Small Signal Operation
*----------------------------------------------------------------------
.SUBCKT LQG15HS2N0S02 port1 port2
C1 port1 port2 3.81e-16
L2 port1 1 2.63e-9
R2 1 port2 2.78e-2
R3 port1 port2 6.67e+3
L4 port1 2 5.68e-8
R4 2 port2 199
L5 port1 3 2.05e-8
R5 3 port2 7.16
L6 port1 4 7.89e-8
R6 4 port2 7.59
L7 port1 5 7.52e-9
C7 5 6 1.65e-14
R7 6 port2 10.7
L8 port1 7 7.39e-10
C8 7 8 1.84e-13
R8 8 port2 2.84
L9 port1 9 4.47e-9
C9 9 10 1.40e-14
R9 10 port2 11.6
.ENDS LQG15HS2N0S02
*----------------------------------------------------------------------
