*----------------------------------------------------------------------
* SPICE Model generated by Murata Manufacturing Co., Ltd.
* Copyright(C) Murata Manufacturing Co., Ltd.
* Description :1005M(0402)/C0G/1pF/50V
* Murata P/N :GJM1555C1H1R0WB01
* Property : C = 1[pF]
* Data Generated on Jan 10, 2017
*----------------------------------------------------------------------
* Applicable Conditions:
*   Frequency Range = 100MHz-20GHz
*   Temperature = 25 degC
*   DC Bias Voltage = 0V
*   Small Signal Operation
*----------------------------------------------------------------------
.SUBCKT GJM1555C1H1R0WB01 port1 port2
C1 port1 11 1.00e-12
L2 11 12 3.46e-10
R3 12 13 2.30e-1
C4 13 port2 8.69e-13
L4 13 port2 7.01e-11
R4 13 port2 411
R100 port1 11 1.00e+10
.ENDS GJM1555C1H1R0WB01