Version 4
SHEET 1 2148 1224
WIRE -224 -336 -336 -336
WIRE -224 -320 -224 -336
WIRE -336 -272 -336 -336
WIRE -880 -48 -944 -48
WIRE -736 -48 -800 -48
WIRE -672 -48 -736 -48
WIRE -336 -48 -336 -80
WIRE -240 -48 -336 -48
WIRE -16 -48 -48 -48
WIRE -944 -32 -944 -48
WIRE -80 -32 -80 -48
WIRE -736 -16 -736 -48
WIRE -16 96 -16 -48
WIRE 48 96 -16 96
WIRE 304 96 240 96
WIRE 368 96 304 96
WIRE 656 96 560 96
WIRE 1152 96 1088 96
WIRE 1280 96 1232 96
WIRE -944 128 -944 48
WIRE -736 128 -736 48
WIRE -736 128 -944 128
WIRE 304 144 304 96
WIRE -736 160 -736 128
WIRE 1280 176 1280 96
WIRE -336 224 -784 224
WIRE -240 224 -336 224
WIRE -16 224 -16 96
WIRE -16 224 -48 224
WIRE -336 240 -336 224
WIRE -784 336 -784 224
WIRE 304 368 304 336
WIRE -336 464 -336 432
WIRE -784 496 -784 416
WIRE 1056 608 944 608
WIRE 1360 608 1248 608
WIRE 1360 624 1360 608
WIRE 944 704 944 608
WIRE 1056 832 944 832
WIRE 1360 832 1248 832
WIRE 1360 848 1360 832
WIRE 944 928 944 832
WIRE 1056 1056 944 1056
WIRE 1360 1056 1248 1056
WIRE 1360 1072 1360 1056
WIRE 944 1152 944 1056
FLAG -224 -320 0
FLAG -336 464 0
FLAG 304 368 0
FLAG 1280 176 0
FLAG 1360 704 0
FLAG 944 704 0
FLAG 1360 928 0
FLAG 944 928 0
FLAG 1360 1152 0
FLAG 944 1152 0
FLAG -784 496 0
FLAG -736 160 0
SYMBOL AutoGenerated\\LQG15HS2N4S02 -336 -176 R90
SYMATTR InstName U1
SYMBOL AutoGenerated\\GRM1555C1H1R0CA01 -144 -48 R180
SYMATTR InstName U2
SYMBOL AutoGenerated\\LQG15HS2N4S02 -144 224 R180
SYMATTR InstName U3
SYMBOL AutoGenerated\\LQG15HS2N0S02 144 96 R0
SYMATTR InstName U5
SYMBOL AutoGenerated\\LQG15HS2N0S02 464 96 R0
SYMATTR InstName U6
SYMBOL AutoGenerated\\GRM1555C1H1R0CA01 -336 336 R270
SYMATTR InstName U4
SYMBOL AutoGenerated\\GRM1555C1H1R0CA01 304 240 R270
SYMATTR InstName U7
SYMBOL AutoGenerated\\GRM1555C1H120JA01 752 96 R0
SYMATTR InstName U8
SYMBOL voltage -944 -48 R0
WINDOW 3 24 180 Left 2
WINDOW 123 24 124 Left 2
WINDOW 39 24 152 Left 2
SYMATTR InstName V2
SYMATTR Value 0
SYMATTR Value2 AC 1V 0
SYMATTR SpiceLine Rser=0 Cpar=0
SYMBOL voltage 1360 608 R0
WINDOW 123 24 124 Left 2
WINDOW 39 24 152 Left 2
SYMATTR InstName V1
SYMATTR Value ""
SYMATTR Value2 AC 1V
SYMATTR SpiceLine Rser=50
SYMBOL AutoGenerated\\GRM1555C1H120JA01 1152 608 R180
SYMATTR InstName U9
SYMBOL voltage 1360 832 R0
WINDOW 123 24 124 Left 2
WINDOW 39 24 152 Left 2
SYMATTR InstName V3
SYMATTR Value ""
SYMATTR Value2 AC 1V
SYMATTR SpiceLine Rser=50
SYMBOL AutoGenerated\\LQG15HS2N0S02 1152 832 R0
SYMATTR InstName U10
SYMBOL voltage 1360 1056 R0
WINDOW 123 24 124 Left 2
WINDOW 39 24 152 Left 2
SYMATTR InstName V4
SYMATTR Value ""
SYMATTR Value2 AC 1V
SYMATTR SpiceLine Rser=50
SYMBOL AutoGenerated\\GRM1555C1H1R0CA01 1152 1056 R0
SYMATTR InstName U11
SYMBOL res 1248 80 R90
WINDOW 0 0 56 VBottom 2
WINDOW 3 32 56 VTop 2
SYMATTR InstName R3
SYMATTR Value 50R
SYMBOL voltage -784 320 R0
WINDOW 3 24 180 Left 2
WINDOW 123 24 124 Left 2
WINDOW 39 24 152 Left 2
SYMATTR InstName V6
SYMATTR Value 0
SYMATTR Value2 AC 1V 0
SYMATTR SpiceLine Rser=0 Cpar=0
SYMBOL cap -752 -16 R0
SYMATTR InstName C1
SYMATTR Value 0.631pC
SYMATTR SpiceLine Rser=40 Lser=0 Rpar=0 Cpar=0
SYMBOL res -896 -32 R270
WINDOW 0 32 56 VTop 2
WINDOW 3 0 56 VBottom 2
SYMATTR InstName R1
SYMATTR Value 42.5
TEXT -722 552 Left 2 !.ac dec 10 2e9 3e9
