Version 4
SHEET 1 3608 2428
WIRE -128 -544 -336 -544
WIRE -336 -528 -336 -544
WIRE -128 -528 -128 -544
WIRE -336 -272 -336 -336
WIRE 2896 -240 2784 -240
WIRE 3328 -240 3088 -240
WIRE 3328 -224 3328 -240
WIRE 2784 -144 2784 -240
WIRE -336 -48 -336 -80
WIRE -336 -48 -848 -48
WIRE -240 -48 -336 -48
WIRE -16 -48 -48 -48
WIRE -80 -32 -80 -48
WIRE 2896 -16 2784 -16
WIRE 3328 -16 3088 -16
WIRE 3328 0 3328 -16
WIRE -848 64 -848 -48
WIRE 2784 80 2784 -16
WIRE -16 96 -16 -48
WIRE 80 96 -16 96
WIRE 304 96 272 96
WIRE 368 96 304 96
WIRE 656 96 560 96
WIRE 1024 96 848 96
WIRE 1312 96 1104 96
WIRE 1312 112 1312 96
WIRE 304 144 304 96
WIRE 2896 208 2784 208
WIRE 3328 208 3088 208
WIRE -848 224 -848 144
WIRE -336 224 -848 224
WIRE -240 224 -336 224
WIRE -16 224 -16 96
WIRE -16 224 -48 224
WIRE 3328 224 3328 208
WIRE -336 240 -336 224
WIRE 2784 304 2784 208
WIRE 304 368 304 336
WIRE -336 464 -336 432
WIRE 2896 480 2784 480
WIRE 3328 480 3088 480
WIRE 3328 496 3328 480
WIRE 2784 576 2784 480
WIRE 736 736 528 736
WIRE 528 752 528 736
WIRE 736 752 736 736
WIRE 736 1008 736 944
WIRE 448 1232 416 1232
WIRE 736 1232 736 1200
WIRE 736 1232 640 1232
WIRE 1248 1232 736 1232
WIRE 480 1248 480 1232
WIRE 1248 1280 1248 1232
WIRE -448 1376 -640 1376
WIRE -160 1376 -256 1376
WIRE 96 1376 32 1376
WIRE 128 1376 96 1376
WIRE 416 1376 416 1232
WIRE 416 1376 320 1376
WIRE 1248 1376 1248 1360
WIRE -640 1408 -640 1376
WIRE 96 1424 96 1376
WIRE 416 1504 416 1376
WIRE 448 1504 416 1504
WIRE 736 1504 640 1504
WIRE 1248 1504 1248 1440
WIRE 1248 1504 736 1504
WIRE 736 1520 736 1504
WIRE -640 1616 -640 1488
WIRE 96 1648 96 1616
WIRE 736 1744 736 1712
WIRE -304 2096 -400 2096
WIRE -192 2096 -240 2096
WIRE -160 2096 -192 2096
WIRE -192 2192 -192 2096
WIRE -400 2368 -400 2096
WIRE -192 2368 -192 2272
WIRE -192 2368 -400 2368
WIRE -144 2368 -192 2368
WIRE -192 2400 -192 2368
FLAG -128 -528 0
FLAG -336 464 0
FLAG 304 368 0
FLAG 3328 -144 0
FLAG 2784 -144 0
FLAG 3328 80 0
FLAG 2784 80 0
FLAG 3328 304 0
FLAG 2784 304 0
FLAG 1312 112 0
FLAG 3328 -240 V_T1_RF_SOURCE
FLAG 3328 -16 V_T2_RF_SOURCE
FLAG 3328 208 V_T3_RF_SOURCE
FLAG 3328 576 0
FLAG 2784 576 0
FLAG 3328 480 V_T4_RF_SOURCE
FLAG 528 752 0
FLAG 736 1744 0
FLAG 96 1648 0
FLAG -640 1616 0
FLAG -192 2400 0
SYMBOL AutoGenerated\\LQG15HS2N4S02 -336 -176 R90
SYMATTR InstName U1
SYMBOL AutoGenerated\\GRM1555C1H1R0CA01 -144 -48 R180
SYMATTR InstName U2
SYMBOL AutoGenerated\\LQG15HS2N4S02 -144 224 R180
SYMATTR InstName U3
SYMBOL AutoGenerated\\LQG15HS2N0S02 176 96 R0
SYMATTR InstName U5
SYMBOL AutoGenerated\\LQG15HS2N0S02 464 96 R0
SYMATTR InstName U6
SYMBOL AutoGenerated\\GRM1555C1H1R0CA01 -336 336 R270
SYMATTR InstName U4
SYMBOL AutoGenerated\\GRM1555C1H1R0CA01 304 240 R270
SYMATTR InstName U7
SYMBOL AutoGenerated\\GRM1555C1H120JA01 752 96 R0
SYMATTR InstName U8
SYMBOL voltage 3328 -240 R0
WINDOW 123 24 124 Left 2
WINDOW 39 24 152 Left 2
SYMATTR Value2 AC 1V
SYMATTR SpiceLine Rser=0
SYMATTR InstName T1_RF_SOURCE
SYMATTR Value ""
SYMBOL AutoGenerated\\GRM1555C1H120JA01 2992 -240 R0
SYMATTR InstName U9
SYMBOL voltage 3328 -16 R0
WINDOW 123 24 124 Left 2
WINDOW 39 24 152 Left 2
SYMATTR Value2 AC 1V
SYMATTR SpiceLine Rser=0
SYMATTR InstName T2_RF_SOURCE
SYMATTR Value ""
SYMBOL AutoGenerated\\LQG15HS2N0S02 2992 -16 R0
SYMATTR InstName U10
SYMBOL voltage 3328 208 R0
WINDOW 123 24 124 Left 2
WINDOW 39 24 152 Left 2
SYMATTR Value2 AC 1V
SYMATTR SpiceLine Rser=0
SYMATTR InstName T3_RF_SOURCE
SYMATTR Value ""
SYMBOL AutoGenerated\\GRM1555C1H1R0CA01 2992 208 R0
SYMATTR InstName U11
SYMBOL res 1120 80 R90
WINDOW 0 0 56 VBottom 2
WINDOW 3 32 56 VTop 2
SYMATTR InstName R3
SYMATTR Value 50R
SYMBOL AutoGenerated\\GRM1555C1H120JA01 -336 -432 R90
SYMATTR InstName U12
SYMBOL AutoGenerated\\LQG15HS2N4S02 2992 480 R180
SYMATTR InstName U13
SYMBOL voltage 3328 480 R0
WINDOW 123 24 124 Left 2
WINDOW 39 24 152 Left 2
SYMATTR Value2 AC 1V
SYMATTR SpiceLine Rser=0
SYMATTR InstName T4_RF_SOURCE
SYMATTR Value ""
SYMBOL AutoGenerated\\LQG15HS2N4S02 736 1104 M90
SYMATTR InstName U14
SYMBOL AutoGenerated\\GRM1555C1H1R0CA01 544 1232 M180
SYMATTR InstName U15
SYMBOL AutoGenerated\\LQG15HS2N4S02 544 1504 M180
SYMATTR InstName U16
SYMBOL AutoGenerated\\LQG15HS2N0S02 224 1376 M0
SYMATTR InstName U17
SYMBOL AutoGenerated\\LQG15HS2N0S02 -64 1376 M0
SYMATTR InstName U18
SYMBOL AutoGenerated\\GRM1555C1H1R0CA01 736 1616 M270
SYMATTR InstName U19
SYMBOL AutoGenerated\\GRM1555C1H1R0CA01 96 1520 M270
SYMATTR InstName U20
SYMBOL AutoGenerated\\GRM1555C1H120JA01 -352 1376 M0
SYMATTR InstName U21
SYMBOL AutoGenerated\\GRM1555C1H120JA01 736 848 M90
SYMATTR InstName U22
SYMBOL cap -240 2080 R90
WINDOW 0 0 32 VBottom 2
WINDOW 3 32 32 VTop 2
SYMATTR InstName C4
SYMATTR Value 3.1pC
SYMATTR SpiceLine Rser=42
SYMBOL current -640 1488 R180
WINDOW 0 24 80 Left 2
WINDOW 3 24 0 Left 2
WINDOW 123 24 -28 Left 2
WINDOW 39 0 0 Left 0
SYMATTR InstName I1
SYMATTR Value ""
SYMATTR Value2 AC 1A
SYMBOL current -192 2272 R180
WINDOW 123 24 108 Left 2
WINDOW 39 0 0 Left 0
SYMATTR Value2 AC 1A
SYMATTR InstName I2
SYMATTR Value ""
SYMBOL current -848 144 R180
WINDOW 0 24 80 Left 2
WINDOW 3 24 0 Left 2
WINDOW 123 24 -28 Left 2
WINDOW 39 0 0 Left 0
SYMATTR InstName I3
SYMATTR Value ""
SYMATTR Value2 AC 1A
SYMBOL cap 1264 1440 R180
WINDOW 0 24 56 Left 2
WINDOW 3 24 8 Left 2
SYMATTR InstName C5
SYMATTR Value 3.1pC
SYMBOL res 1264 1376 R180
WINDOW 0 36 76 Left 2
WINDOW 3 36 40 Left 2
SYMATTR InstName R5
SYMATTR Value 42R
TEXT -1888 -72 Left 2 !.ac dec 10 2e9 3e9
TEXT -1920 -152 Left 5 ;Simulation_Def
TEXT -504 -640 Left 5 ;Differential Impedance of Texas Front-End  from RF Source Point View
TEXT -504 600 Left 5 ;Network Impedance of Texas Front-End  from Antenna Point View
TEXT -504 2000 Left 5 ;RF SOURCE Impedance of Texas MCU
RECTANGLE Normal 928 528 -496 -608 2
RECTANGLE Normal -704 272 -944 -96 2
RECTANGLE Normal 928 1776 -496 640 2
RECTANGLE Normal 1104 1552 1344 1184 2
RECTANGLE Normal -1488 64 -1920 -128 2
RECTANGLE Normal -256 2416 -496 2048 2
