Version 4
SHEET 1 2108 868
WIRE 576 -208 368 -208
WIRE 368 -192 368 -208
WIRE 576 -192 576 -208
WIRE 368 64 368 0
WIRE 368 288 368 256
WIRE 368 288 -144 288
WIRE 464 288 368 288
WIRE 688 288 656 288
WIRE 624 304 624 288
WIRE -144 400 -144 288
WIRE 688 432 688 288
WIRE 784 432 688 432
WIRE 1008 432 976 432
WIRE 1072 432 1008 432
WIRE 1360 432 1264 432
WIRE 1728 432 1552 432
WIRE 2016 432 1808 432
WIRE 2016 448 2016 432
WIRE 1008 480 1008 432
WIRE -144 560 -144 480
WIRE 368 560 -144 560
WIRE 464 560 368 560
WIRE 688 560 688 432
WIRE 688 560 656 560
WIRE 368 576 368 560
WIRE 1008 704 1008 672
WIRE 368 800 368 768
FLAG 576 -192 0
FLAG 368 800 0
FLAG 1008 704 0
FLAG 2016 448 0
SYMBOL AutoGenerated\\LQG15HS2N4S02 368 160 R90
SYMATTR InstName U1
SYMBOL AutoGenerated\\GRM1555C1H1R0CA01 560 288 R180
SYMATTR InstName U2
SYMBOL AutoGenerated\\LQG15HS2N4S02 560 560 R180
SYMATTR InstName U3
SYMBOL AutoGenerated\\LQG15HS2N0S02 880 432 R0
SYMATTR InstName U4
SYMBOL AutoGenerated\\GRM1555C1H1R0CA01 368 672 R270
SYMATTR InstName U5
SYMBOL AutoGenerated\\GRM1555C1H1R0CA01 1008 576 R270
SYMATTR InstName U6
SYMBOL AutoGenerated\\GRM1555C1H120JA01 1456 432 R0
SYMATTR InstName U7
SYMBOL res 1824 416 R90
WINDOW 0 0 56 VBottom 2
WINDOW 3 32 56 VTop 2
SYMATTR InstName R1
SYMATTR Value 50R
SYMBOL AutoGenerated\\GRM1555C1H120JA01 368 -96 R90
SYMATTR InstName U8
SYMBOL current -144 480 R180
WINDOW 0 24 80 Left 2
WINDOW 3 24 0 Left 2
WINDOW 123 24 -28 Left 2
WINDOW 39 0 0 Left 0
SYMATTR InstName I1
SYMATTR Value ""
SYMATTR Value2 AC 1A
SYMBOL AutoGenerated\\LQG15HS2N0S02 1168 432 R0
SYMATTR InstName U9
TEXT -1184 264 Left 2 !.ac dec 10 2e9 3e9
TEXT -1216 184 Left 5 ;Simulation_Def
TEXT 200 -304 Left 5 ;Differential Impedance of Texas Front-End  from RF Source Point View
RECTANGLE Normal 1632 864 208 -272 2
RECTANGLE Normal 0 608 -240 240 2
RECTANGLE Normal -784 400 -1216 208 2
