Version 4
SHEET 1 1428 868
WIRE 80 -320 80 -336
WIRE 384 -256 368 -256
WIRE 560 -256 464 -256
WIRE 592 -256 560 -256
WIRE 688 -256 656 -256
WIRE 816 -256 688 -256
WIRE 80 -240 -192 -240
WIRE 128 -240 80 -240
WIRE 368 -240 368 -256
WIRE 368 -240 320 -240
WIRE 560 -224 560 -256
WIRE 688 -224 688 -256
WIRE 464 -192 464 -256
WIRE -752 -160 -752 -192
WIRE -592 -160 -592 -192
WIRE 128 -144 80 -144
WIRE 368 -144 320 -144
WIRE -992 -128 -992 -144
WIRE 80 -128 80 -144
WIRE 560 -128 560 -160
WIRE 560 -128 464 -128
WIRE 592 -128 560 -128
WIRE 688 -128 688 -160
WIRE 688 -128 656 -128
WIRE 816 -128 688 -128
WIRE 560 -64 560 -128
WIRE 576 -64 560 -64
WIRE -752 -48 -752 -80
WIRE -592 -48 -592 -80
WIRE 368 -32 368 -144
WIRE 464 -32 464 -64
WIRE 464 -32 368 -32
WIRE 816 -32 816 -128
WIRE 816 -32 464 -32
WIRE -992 0 -992 -32
WIRE -560 48 -752 48
WIRE -432 48 -560 48
WIRE -192 48 -256 48
WIRE -144 48 -192 48
WIRE -752 112 -752 48
WIRE -144 128 -256 128
WIRE 848 128 672 128
WIRE 1008 128 848 128
WIRE 1040 128 1008 128
WIRE 1136 128 1104 128
WIRE 1264 128 1136 128
WIRE 848 160 848 128
WIRE 1008 160 1008 128
WIRE 1136 160 1136 128
WIRE -144 176 -144 128
WIRE 1008 256 1008 224
WIRE 1040 256 1008 256
WIRE 1136 256 1136 224
WIRE 1136 256 1104 256
WIRE 1264 256 1136 256
WIRE -752 272 -752 192
WIRE -432 304 -432 128
WIRE 1008 320 1008 256
WIRE 1024 320 1008 320
WIRE 848 352 848 224
WIRE 848 352 624 352
WIRE 1056 352 848 352
WIRE 1264 352 1264 256
WIRE 1264 352 1056 352
WIRE 1056 368 1056 352
WIRE 768 512 672 512
WIRE 800 512 768 512
WIRE 960 512 800 512
WIRE 1184 512 1088 512
WIRE 1328 512 1248 512
WIRE 768 528 768 512
WIRE 672 544 672 512
WIRE 768 608 672 608
WIRE 800 608 768 608
WIRE 960 608 864 608
WIRE 1168 608 1088 608
WIRE 1328 608 1328 592
WIRE 1328 608 1168 608
WIRE 864 688 864 608
WIRE 1168 752 1168 608
WIRE 864 848 864 784
FLAG 80 -336 5VDC
FLAG 80 -128 0
FLAG -752 -48 0
FLAG -192 -240 Zero_CrossOut
FLAG -144 176 0
FLAG -432 304 0
FLAG -752 272 0
FLAG 560 -64 0
FLAG 816 -256 Fase
FLAG -192 48 Fase
FLAG -752 -192 5VDC
FLAG -560 48 F
FLAG -592 -48 0
FLAG -592 -192 5VPWM
FLAG 1008 320 0
FLAG 1264 128 F
FLAG 672 128 R_F
FLAG 816 768 5VPWM
FLAG -992 -224 5VDC
FLAG -992 0 0
FLAG -1040 -48 5VPWM
FLAG 864 848 0
FLAG 1168 752 0
FLAG 800 512 R_F
FLAG 1056 368 0
SYMBOL Misc\\signal -752 96 R0
WINDOW 123 0 0 Left 0
WINDOW 39 24 132 Left 2
SYMATTR SpiceLine Rser=0.0001
SYMATTR InstName V1
SYMATTR Value SINE(0 325 60)
SYMBOL diode 656 -272 R90
WINDOW 0 0 32 VBottom 2
WINDOW 3 32 32 VTop 2
SYMATTR InstName D1
SYMBOL diode 704 -160 R180
WINDOW 0 24 64 Left 2
WINDOW 3 24 0 Left 2
SYMATTR InstName D2
SYMBOL diode 656 -144 R90
WINDOW 0 0 32 VBottom 2
WINDOW 3 32 32 VTop 2
SYMATTR InstName D3
SYMBOL diode 576 -160 R180
WINDOW 0 24 64 Left 2
WINDOW 3 24 0 Left 2
SYMATTR InstName D4
SYMBOL Optos\\PC817A 224 -192 M0
SYMATTR InstName U1
SYMBOL res 96 -224 R180
WINDOW 0 36 76 Left 2
WINDOW 3 36 40 Left 2
SYMATTR InstName R1
SYMATTR Value 100R
SYMBOL res 480 -272 R90
WINDOW 0 0 56 VBottom 2
WINDOW 3 39 59 VTop 2
SYMATTR InstName R2
SYMATTR Value 300
SYMBOL cap 448 -128 R0
WINDOW 3 -77 30 Left 2
SYMATTR Value 0.01µF
SYMATTR InstName C1
SYMBOL cap 448 -192 R0
WINDOW 3 -78 30 Left 2
SYMATTR Value 0.01µF
SYMATTR InstName C2
SYMBOL voltage -752 -176 R0
WINDOW 123 0 0 Left 0
WINDOW 39 0 0 Left 0
SYMATTR InstName V2
SYMATTR Value 500
SYMBOL ind2 -448 32 R0
SYMATTR InstName Lp
SYMATTR Value 100µ
SYMBOL ind2 -240 144 R180
WINDOW 0 36 80 Left 2
WINDOW 3 36 40 Left 2
SYMATTR InstName Ls
SYMATTR Value 0.2µ
SYMBOL voltage -592 -176 R0
WINDOW 123 0 0 Left 0
WINDOW 39 0 0 Left 0
SYMATTR InstName V3
SYMATTR Value PULSE(0 5 0 0 0 0.00005 0.0001)
SYMBOL diode 1104 112 R90
WINDOW 0 0 32 VBottom 2
WINDOW 3 32 32 VTop 2
SYMATTR InstName D5
SYMBOL diode 1152 224 R180
WINDOW 0 24 64 Left 2
WINDOW 3 24 0 Left 2
SYMATTR InstName D6
SYMBOL diode 1104 240 R90
WINDOW 0 0 32 VBottom 2
WINDOW 3 32 32 VTop 2
SYMATTR InstName D7
SYMBOL diode 1024 224 R180
WINDOW 0 24 64 Left 2
WINDOW 3 24 0 Left 2
SYMATTR InstName D8
SYMBOL cap 832 160 R0
WINDOW 3 -78 30 Left 2
SYMATTR Value 10µF
SYMATTR InstName C3
SYMBOL Wurth\\LTspice\ Basic\ Library\\750032052_B 960 512 R0
SYMATTR InstName U2
SYMBOL diode 1184 528 R270
WINDOW 0 32 32 VTop 2
WINDOW 3 0 32 VBottom 2
SYMATTR InstName D9
SYMBOL res 1312 496 R0
SYMATTR InstName R3
SYMATTR Value 1000R
SYMBOL res -1008 -240 R0
SYMATTR InstName R4
SYMATTR Value 1000R
SYMBOL nmos -1040 -128 R0
SYMATTR InstName M2
SYMATTR Value STW11NM80
SYMBOL nmos 816 688 R0
SYMATTR InstName M1
SYMATTR Value STW11NM80
SYMBOL diode 864 592 R90
WINDOW 0 0 32 VBottom 2
WINDOW 3 32 32 VTop 2
SYMATTR InstName D10
SYMBOL res 752 512 R0
SYMATTR InstName R5
SYMATTR Value 1MegR
SYMBOL cap 656 544 R0
SYMATTR InstName C4
SYMATTR Value 1µC
TEXT -784 480 Left 2 !.tran 0 0.1s 0
TEXT -440 24 Left 2 !K Lp Ls 1
